* /Users/beccacarmichael/Documents/LTspice/Draft4.asc
R2 N003 N004 2
R3 0 N001 2
R4 N003 0 1
C1 N003 N003 0.0001
V2 N001 N002 0.5
V1 N002 N004 1.5
.op
.backanno
.end
