* /Users/beccacarmichael/Documents/DavidBoothStuff/funSPICE/circuits/labeled_equivresistance.asc
R1 N001 N004 1
R2 N001 N003 4
R3 N004 N006 3
R4 N003 N006 2
R5 0 N001 0.6
R6 N007 N006 0.5
R7 N007 N002 2
R8 N007 N005 4
R9 N002 0 3
R10 N005 0 1
V1 N006 0 24
.op
* node 0
* node 1
* node 2
* node 4
* node 3
* node 6
* node 5
* node 7
.backanno
.end
