* /Users/beccacarmichael/Documents/DavidBoothStuff/funSPICE/circuits/source_insanity.asc
V3 N001 P001 1
I1 0 P001 2
V4 N001 P002 4
R1 P002 0 1
I2 N001 0 1
V2 N002 0 1
V1 N001 N002 4
.op
.backanno
.end
