* /Users/beccacarmichael/Documents/DavidBoothStuff/funSPICE/circuits/weird_RLC.asc
R6 N010 N014 0.5
R7 N010 N007 2
R8 N010 0 4
R9 N004 N002 3
R10 0 N001 1
V1 N014 N002 24
C1 N004 N007 0.0001
R13 N006 N010 2
I1 N001 N006 4
I2 N003 N005 6
L1 N005 N012 6
L2 N009 N011 4
C2 N008 N013 0.00001
R1 N002 N008 3
R2 N013 N014 3
R3 N012 N014 2.2
R4 N011 N014 8
R5 N005 N009 1
R11 N002 N003 1
R12 N001 N002 5
C3 N003 N005 0.006
.op
.backanno
.end
